  Version,9.5;

  Timestep,6;

  LifeCycleCost:Parameters,
    Life Cycle Cost Parameters,  !- Name
    EndOfYear,               !- Discounting Convention
    ConstantDollar,          !- Inflation Approach
    0.03,                    !- Real Discount Rate
    ,                        !- Nominal Discount Rate
    ,                        !- Inflation
    ,                        !- Base Date Month
    2011,                    !- Base Date Year
    ,                        !- Service Date Month
    2011,                    !- Service Date Year
    25,                      !- Length of Study Period in Years
    ,                        !- Tax rate
    None;                    !- Depreciation Method

  LifeCycleCost:UsePriceEscalation,
    U.S. Avg  Commercial-Electricity,  !- LCC Price Escalation Name
    Electricity,             !- Resource
    2011,                    !- Escalation Start Year
    January,                 !- Escalation Start Month
    0.9838,                  !- Year 1 Escalation
    0.9730,                  !- Year 2 Escalation
    0.9632,                  !- Year 3 Escalation
    0.9611,                  !- Year 4 Escalation
    0.9571,                  !- Year 5 Escalation
    0.9553,                  !- Year 6 Escalation
    0.9539,                  !- Year 7 Escalation
    0.9521,                  !- Year 8 Escalation
    0.9546,                  !- Year 9 Escalation
    0.9550,                  !- <none>
    0.9553,                  !- <none>
    0.9564,                  !- <none>
    0.9575,                  !- <none>
    0.9596,                  !- <none>
    0.9618,                  !- <none>
    0.9614,                  !- <none>
    0.9618,                  !- <none>
    0.9618,                  !- <none>
    0.9593,                  !- <none>
    0.9589,                  !- <none>
    0.9607,                  !- <none>
    0.9625,                  !- <none>
    0.9650,                  !- <none>
    0.9708,                  !- <none>
    0.9751,                  !- <none>
    0.9762,                  !- <none>
    0.9766,                  !- <none>
    0.9766,                  !- <none>
    0.9769,                  !- <none>
    0.9773;                  !- <none>

  LifeCycleCost:UsePriceEscalation,
    U.S. Avg  Commercial-Distillate Oil,  !- LCC Price Escalation Name
    FuelOilNo1,              !- Resource
    2011,                    !- Escalation Start Year
    January,                 !- Escalation Start Month
    0.9714,                  !- Year 1 Escalation
    0.9730,                  !- Year 2 Escalation
    0.9942,                  !- Year 3 Escalation
    1.0164,                  !- Year 4 Escalation
    1.0541,                  !- Year 5 Escalation
    1.0928,                  !- Year 6 Escalation
    1.1267,                  !- Year 7 Escalation
    1.1580,                  !- Year 8 Escalation
    1.1792,                  !- Year 9 Escalation
    1.1967,                  !- <none>
    1.2200,                  !- <none>
    1.2333,                  !- <none>
    1.2566,                  !- <none>
    1.2709,                  !- <none>
    1.2826,                  !- <none>
    1.2985,                  !- <none>
    1.3102,                  !- <none>
    1.3250,                  !- <none>
    1.3261,                  !- <none>
    1.3282,                  !- <none>
    1.3324,                  !- <none>
    1.3356,                  !- <none>
    1.3431,                  !- <none>
    1.3510,                  !- <none>
    1.3568,                  !- <none>
    1.3606,                  !- <none>
    1.3637,                  !- <none>
    1.3674,                  !- <none>
    1.3706,                  !- <none>
    1.3743;                  !- <none>

  LifeCycleCost:UsePriceEscalation,
    U.S. Avg  Commercial-Residual Oil,  !- LCC Price Escalation Name
    FuelOilNo2,              !- Resource
    2011,                    !- Escalation Start Year
    January,                 !- Escalation Start Month
    0.8469,                  !- Year 1 Escalation
    0.8257,                  !- Year 2 Escalation
    0.8681,                  !- Year 3 Escalation
    0.8988,                  !- Year 4 Escalation
    0.9289,                  !- Year 5 Escalation
    0.9604,                  !- Year 6 Escalation
    0.9897,                  !- Year 7 Escalation
    1.0075,                  !- Year 8 Escalation
    1.0314,                  !- Year 9 Escalation
    1.0554,                  !- <none>
    1.0861,                  !- <none>
    1.1278,                  !- <none>
    1.1497,                  !- <none>
    1.1620,                  !- <none>
    1.1743,                  !- <none>
    1.1852,                  !- <none>
    1.1948,                  !- <none>
    1.2037,                  !- <none>
    1.2071,                  !- <none>
    1.2119,                  !- <none>
    1.2139,                  !- <none>
    1.2194,                  !- <none>
    1.2276,                  !- <none>
    1.2365,                  !- <none>
    1.2420,                  !- <none>
    1.2461,                  !- <none>
    1.2509,                  !- <none>
    1.2550,                  !- <none>
    1.2591,                  !- <none>
    1.2638;                  !- <none>

  LifeCycleCost:UsePriceEscalation,
    U.S. Avg  Commercial-Natural gas,  !- LCC Price Escalation Name
    NaturalGas,              !- Resource
    2011,                    !- Escalation Start Year
    January,                 !- Escalation Start Month
    0.9823,                  !- Year 1 Escalation
    0.9557,                  !- Year 2 Escalation
    0.9279,                  !- Year 3 Escalation
    0.9257,                  !- Year 4 Escalation
    0.9346,                  !- Year 5 Escalation
    0.9412,                  !- Year 6 Escalation
    0.9512,                  !- Year 7 Escalation
    0.9645,                  !- Year 8 Escalation
    0.9856,                  !- Year 9 Escalation
    1.0067,                  !- <none>
    1.0222,                  !- <none>
    1.0410,                  !- <none>
    1.0610,                  !- <none>
    1.0787,                  !- <none>
    1.0942,                  !- <none>
    1.1098,                  !- <none>
    1.1220,                  !- <none>
    1.1308,                  !- <none>
    1.1386,                  !- <none>
    1.1486,                  !- <none>
    1.1619,                  !- <none>
    1.1763,                  !- <none>
    1.1918,                  !- <none>
    1.2118,                  !- <none>
    1.2284,                  !- <none>
    1.2439,                  !- <none>
    1.2605,                  !- <none>
    1.2772,                  !- <none>
    1.2938,                  !- <none>
    1.3115;                  !- <none>

  LifeCycleCost:UsePriceEscalation,
    U.S. Avg  Commercial-Coal,  !- LCC Price Escalation Name
    Coal,                    !- Resource
    2011,                    !- Escalation Start Year
    January,                 !- Escalation Start Month
    0.9970,                  !- Year 1 Escalation
    1.0089,                  !- Year 2 Escalation
    1.0089,                  !- Year 3 Escalation
    0.9941,                  !- Year 4 Escalation
    0.9941,                  !- Year 5 Escalation
    1.0000,                  !- Year 6 Escalation
    1.0030,                  !- Year 7 Escalation
    1.0059,                  !- Year 8 Escalation
    1.0089,                  !- Year 9 Escalation
    1.0119,                  !- <none>
    1.0148,                  !- <none>
    1.0178,                  !- <none>
    1.0208,                  !- <none>
    1.0267,                  !- <none>
    1.0297,                  !- <none>
    1.0356,                  !- <none>
    1.0415,                  !- <none>
    1.0534,                  !- <none>
    1.0564,                  !- <none>
    1.0593,                  !- <none>
    1.0653,                  !- <none>
    1.0712,                  !- <none>
    1.0742,                  !- <none>
    1.0801,                  !- <none>
    1.0831,                  !- <none>
    1.0831,                  !- <none>
    1.0861,                  !- <none>
    1.0890,                  !- <none>
    1.0920,                  !- <none>
    1.0950;                  !- <none>

  Building,
    Building 1,              !- Name
    ,                        !- North Axis {deg}
    city,                    !- Terrain
    ,                        !- Loads Convergence Tolerance Value {W}
    ,                        !- Temperature Convergence Tolerance Value {deltaC}
    FullExterior,            !- Solar Distribution
    50,                      !- Maximum Number of Warmup Days
    ;                        !- Minimum Number of Warmup Days

  Zone,
    S1 office core,          !- Name
    ,                        !- Direction of Relative North {deg}
    ,                        !- X Origin {m}
    ,                        !- Y Origin {m}
    ,                        !- Z Origin {m}
    ,                        !- Type
    ,                        !- Multiplier
    ,                        !- Ceiling Height {m}
    ,                        !- Volume {m3}
    ,                        !- Floor Area {m2}
    ,                        !- Zone Inside Convection Algorithm
    ,                        !- Zone Outside Convection Algorithm
    Yes;                     !- Part of Total Floor Area

  BuildingSurface:Detailed,
    S1 office core floor,    !- Name
    Floor,                   !- Surface Type
    office ext floor Ground Floor,  !- Construction Name
    S1 office core,          !- Zone Name
    Ground,                  !- Outside Boundary Condition
    ,                        !- Outside Boundary Condition Object
    NoSun,                   !- Sun Exposure
    NoWind,                  !- Wind Exposure
    ,                        !- View Factor to Ground
    ,                        !- Number of Vertices
    13.6999999999534,-16.7600000000093,0,  !- X,Y,Z ==> Vertex 1 {m}
    3,-18.1500000000233,0,  !- X,Y,Z ==> Vertex 2 {m}
    1.70999999996275,-11.6899999999441,0,  !- X,Y,Z ==> Vertex 3 {m}
    0,0,0,  !- X,Y,Z ==> Vertex 4 {m}
    12.059999999823,1.17000000004191,0,  !- X,Y,Z ==> Vertex 5 {m}
    14.0699999998324,-13.6600000000326,0,  !- X,Y,Z ==> Vertex 6 {m}
    13.339999999851,-13.75,0;  !- X,Y,Z ==> Vertex 7 {m}

  BuildingSurface:Detailed,
    S1 office core roof,     !- Name
    Ceiling,                 !- Surface Type
    office int floor Metal framed walls Reversed,  !- Construction Name
    S1 office core,          !- Zone Name
    Surface,                 !- Outside Boundary Condition
    S2 office core floor,    !- Outside Boundary Condition Object
    NoSun,                   !- Sun Exposure
    NoWind,                  !- Wind Exposure
    ,                        !- View Factor to Ground
    ,                        !- Number of Vertices
    3,-18.1500000000233,4.63,  !- X,Y,Z ==> Vertex 1 {m}
    13.6999999999534,-16.7600000000093,4.63,  !- X,Y,Z ==> Vertex 2 {m}
    13.339999999851,-13.75,4.63,  !- X,Y,Z ==> Vertex 3 {m}
    14.0699999998324,-13.6600000000326,4.63,  !- X,Y,Z ==> Vertex 4 {m}
    12.059999999823,1.17000000004191,4.63,  !- X,Y,Z ==> Vertex 5 {m}
    0,0,4.63,  !- X,Y,Z ==> Vertex 6 {m}
    1.70999999996275,-11.6899999999441,4.63;  !- X,Y,Z ==> Vertex 7 {m}

  BuildingSurface:Detailed,
    S1 office core wall 0,   !- Name
    Wall,                    !- Surface Type
    office ext wall Metal framed walls,  !- Construction Name
    S1 office core,          !- Zone Name
    Outdoors,                !- Outside Boundary Condition
    ,                        !- Outside Boundary Condition Object
    SunExposed,              !- Sun Exposure
    WindExposed,             !- Wind Exposure
    ,                        !- View Factor to Ground
    ,                        !- Number of Vertices
    3,-18.1500000000233,4.63,  !- X,Y,Z ==> Vertex 1 {m}
    3,-18.1500000000233,0,  !- X,Y,Z ==> Vertex 2 {m}
    13.6999999999534,-16.7600000000093,0,  !- X,Y,Z ==> Vertex 3 {m}
    13.6999999999534,-16.7600000000093,4.63;  !- X,Y,Z ==> Vertex 4 {m}

  FenestrationSurface:Detailed,
    S1 office core wall 0 win_1,  !- Name
    Window,                  !- Surface Type
    office Window construction_simple glazing,  !- Construction Name
    S1 office core wall 0,   !- Building Surface Name
    ,                        !- Outside Boundary Condition Object
    ,                        !- View Factor to Ground
    ,                        !- Frame and Divider Name
    ,                        !- Multiplier
    ,                        !- Number of Vertices
    4.8953300690707,-17.9037842246919,2.42,  !- X,Y,Z ==> Vertex 1 {m}
    4.8953300690707,-17.9037842246919,0.9,  !- X,Y,Z ==> Vertex 2 {m}
    11.8046699308827,-17.0062157753407,0.9,  !- X,Y,Z ==> Vertex 3 {m}
    11.8046699308827,-17.0062157753407,2.42;  !- X,Y,Z ==> Vertex 4 {m}

  BuildingSurface:Detailed,
    S1 office core wall 1,   !- Name
    Wall,                    !- Surface Type
    office ext wall Metal framed walls,  !- Construction Name
    S1 office core,          !- Zone Name
    Outdoors,                !- Outside Boundary Condition
    ,                        !- Outside Boundary Condition Object
    SunExposed,              !- Sun Exposure
    WindExposed,             !- Wind Exposure
    ,                        !- View Factor to Ground
    ,                        !- Number of Vertices
    13.6999999999534,-16.7600000000093,4.63,  !- X,Y,Z ==> Vertex 1 {m}
    13.6999999999534,-16.7600000000093,0,  !- X,Y,Z ==> Vertex 2 {m}
    13.339999999851,-13.75,0,  !- X,Y,Z ==> Vertex 3 {m}
    13.339999999851,-13.75,4.63;  !- X,Y,Z ==> Vertex 4 {m}

  FenestrationSurface:Detailed,
    S1 office core wall 1 win_1,  !- Name
    Window,                  !- Surface Type
    office Window construction_simple glazing,  !- Construction Name
    S1 office core wall 1,   !- Building Surface Name
    ,                        !- Outside Boundary Condition Object
    ,                        !- View Factor to Ground
    ,                        !- Frame and Divider Name
    ,                        !- Multiplier
    ,                        !- Number of Vertices
    13.6362318854616,-16.2268277095471,2.42,  !- X,Y,Z ==> Vertex 1 {m}
    13.6362318854616,-16.2268277095471,0.9,  !- X,Y,Z ==> Vertex 2 {m}
    13.4037681143428,-14.2831722904622,0.9,  !- X,Y,Z ==> Vertex 3 {m}
    13.4037681143428,-14.2831722904622,2.42;  !- X,Y,Z ==> Vertex 4 {m}

  BuildingSurface:Detailed,
    S1 office core wall 2,   !- Name
    Wall,                    !- Surface Type
    ext wall Adiabatic Construction,  !- Construction Name
    S1 office core,          !- Zone Name
    Adiabatic,               !- Outside Boundary Condition
    ,                        !- Outside Boundary Condition Object
    NoSun,                   !- Sun Exposure
    NoWind,                  !- Wind Exposure
    ,                        !- View Factor to Ground
    ,                        !- Number of Vertices
    13.339999999851,-13.75,4.63,  !- X,Y,Z ==> Vertex 1 {m}
    13.339999999851,-13.75,0,  !- X,Y,Z ==> Vertex 2 {m}
    14.0699999998324,-13.6600000000326,0,  !- X,Y,Z ==> Vertex 3 {m}
    14.0699999998324,-13.6600000000326,4.63;  !- X,Y,Z ==> Vertex 4 {m}

  BuildingSurface:Detailed,
    S1 office core wall 3,   !- Name
    Wall,                    !- Surface Type
    office ext wall Metal framed walls,  !- Construction Name
    S1 office core,          !- Zone Name
    Outdoors,                !- Outside Boundary Condition
    ,                        !- Outside Boundary Condition Object
    SunExposed,              !- Sun Exposure
    WindExposed,             !- Wind Exposure
    ,                        !- View Factor to Ground
    ,                        !- Number of Vertices
    14.0699999998324,-13.6600000000326,4.63,  !- X,Y,Z ==> Vertex 1 {m}
    14.0699999998324,-13.6600000000326,0,  !- X,Y,Z ==> Vertex 2 {m}
    12.059999999823,1.17000000004191,0,  !- X,Y,Z ==> Vertex 3 {m}
    12.059999999823,1.17000000004191,4.63;  !- X,Y,Z ==> Vertex 4 {m}

  FenestrationSurface:Detailed,
    S1 office core wall 3 win_1,  !- Name
    Window,                  !- Surface Type
    office Window construction_simple glazing,  !- Construction Name
    S1 office core wall 3,   !- Building Surface Name
    ,                        !- Outside Boundary Condition Object
    ,                        !- View Factor to Ground
    ,                        !- Frame and Divider Name
    ,                        !- Multiplier
    ,                        !- Number of Vertices
    13.713961360686,-11.0331079510062,2.42,  !- X,Y,Z ==> Vertex 1 {m}
    13.713961360686,-11.0331079510062,0.9,  !- X,Y,Z ==> Vertex 2 {m}
    12.4160386389694,-1.45689204898445,0.9,  !- X,Y,Z ==> Vertex 3 {m}
    12.4160386389694,-1.45689204898445,2.42;  !- X,Y,Z ==> Vertex 4 {m}

  BuildingSurface:Detailed,
    S1 office core wall 4,   !- Name
    Wall,                    !- Surface Type
    office ext wall Metal framed walls,  !- Construction Name
    S1 office core,          !- Zone Name
    Outdoors,                !- Outside Boundary Condition
    ,                        !- Outside Boundary Condition Object
    SunExposed,              !- Sun Exposure
    WindExposed,             !- Wind Exposure
    ,                        !- View Factor to Ground
    ,                        !- Number of Vertices
    12.059999999823,1.17000000004191,4.63,  !- X,Y,Z ==> Vertex 1 {m}
    12.059999999823,1.17000000004191,0,  !- X,Y,Z ==> Vertex 2 {m}
    0,0,0,  !- X,Y,Z ==> Vertex 3 {m}
    0,0,4.63;  !- X,Y,Z ==> Vertex 4 {m}

  FenestrationSurface:Detailed,
    S1 office core wall 4 win_1,  !- Name
    Window,                  !- Surface Type
    office Window construction_simple glazing,  !- Construction Name
    S1 office core wall 4,   !- Building Surface Name
    ,                        !- Outside Boundary Condition Object
    ,                        !- View Factor to Ground
    ,                        !- Frame and Divider Name
    ,                        !- Multiplier
    ,                        !- Number of Vertices
    9.92376816498597,0.962753627995012,2.42,  !- X,Y,Z ==> Vertex 1 {m}
    9.92376816498597,0.962753627995012,0.9,  !- X,Y,Z ==> Vertex 2 {m}
    2.13623183483708,0.207246372046897,0.9,  !- X,Y,Z ==> Vertex 3 {m}
    2.13623183483708,0.207246372046897,2.42;  !- X,Y,Z ==> Vertex 4 {m}

  BuildingSurface:Detailed,
    S1 office core wall 5,   !- Name
    Wall,                    !- Surface Type
    office ext wall Metal framed walls,  !- Construction Name
    S1 office core,          !- Zone Name
    Outdoors,                !- Outside Boundary Condition
    ,                        !- Outside Boundary Condition Object
    SunExposed,              !- Sun Exposure
    WindExposed,             !- Wind Exposure
    ,                        !- View Factor to Ground
    ,                        !- Number of Vertices
    0,0,4.63,  !- X,Y,Z ==> Vertex 1 {m}
    0,0,0,  !- X,Y,Z ==> Vertex 2 {m}
    1.70999999996275,-11.6899999999441,0,  !- X,Y,Z ==> Vertex 3 {m}
    1.70999999996275,-11.6899999999441,4.63;  !- X,Y,Z ==> Vertex 4 {m}

  FenestrationSurface:Detailed,
    S1 office core wall 5 win_1,  !- Name
    Window,                  !- Surface Type
    office Window construction_simple glazing,  !- Construction Name
    S1 office core wall 5,   !- Building Surface Name
    ,                        !- Outside Boundary Condition Object
    ,                        !- View Factor to Ground
    ,                        !- Frame and Divider Name
    ,                        !- Multiplier
    ,                        !- Number of Vertices
    0.302898543743401,-2.07069238387168,2.42,  !- X,Y,Z ==> Vertex 1 {m}
    0.302898543743401,-2.07069238387168,0.9,  !- X,Y,Z ==> Vertex 2 {m}
    1.40710145621935,-9.61930761607244,0.9,  !- X,Y,Z ==> Vertex 3 {m}
    1.40710145621935,-9.61930761607244,2.42;  !- X,Y,Z ==> Vertex 4 {m}

  BuildingSurface:Detailed,
    S1 office core wall 6,   !- Name
    Wall,                    !- Surface Type
    office ext wall Metal framed walls,  !- Construction Name
    S1 office core,          !- Zone Name
    Outdoors,                !- Outside Boundary Condition
    ,                        !- Outside Boundary Condition Object
    SunExposed,              !- Sun Exposure
    WindExposed,             !- Wind Exposure
    ,                        !- View Factor to Ground
    ,                        !- Number of Vertices
    1.70999999996275,-11.6899999999441,4.63,  !- X,Y,Z ==> Vertex 1 {m}
    1.70999999996275,-11.6899999999441,0,  !- X,Y,Z ==> Vertex 2 {m}
    3,-18.1500000000233,0,  !- X,Y,Z ==> Vertex 3 {m}
    3,-18.1500000000233,4.63;  !- X,Y,Z ==> Vertex 4 {m}

  FenestrationSurface:Detailed,
    S1 office core wall 6 win_1,  !- Name
    Window,                  !- Surface Type
    office Window construction_simple glazing,  !- Construction Name
    S1 office core wall 6,   !- Building Surface Name
    ,                        !- Outside Boundary Condition Object
    ,                        !- View Factor to Ground
    ,                        !- Frame and Divider Name
    ,                        !- Multiplier
    ,                        !- Number of Vertices
    1.93850241016671,-12.8342833874581,2.42,  !- X,Y,Z ==> Vertex 1 {m}
    1.93850241016671,-12.8342833874581,0.9,  !- X,Y,Z ==> Vertex 2 {m}
    2.77149758979603,-17.0057166125093,0.9,  !- X,Y,Z ==> Vertex 3 {m}
    2.77149758979603,-17.0057166125093,2.42;  !- X,Y,Z ==> Vertex 4 {m}

  ZoneControl:Thermostat,
    S1 office core Thermostat,  !- Name
    S1 office core,          !- Zone or ZoneList Name
    S1 office core Thermostat Schedule,  !- Control Type Schedule Name
    ThermostatSetpoint:DualSetpoint,  !- Control 1 Object Type
    office thermostat;       !- Control 1 Name

  Schedule:Compact,
    S1 office core Thermostat Schedule,  !- Name
    S1 office core Thermostat Schedule Type Limits,  !- Schedule Type Limits Name
    Through: 12/31,          !- Field 1
    For: AllDays,            !- Field 2
    Until: 24:00,4;          !- Field 3

  ScheduleTypeLimits,
    S1 office core Thermostat Schedule Type Limits,  !- Name
    0,                       !- Lower Limit Value
    4,                       !- Upper Limit Value
    DISCRETE;                !- Numeric Type

  ThermostatSetpoint:DualSetpoint,
    office thermostat,       !- Name
    office heating year,     !- Heating Setpoint Temperature Schedule Name
    office cooling year;     !- Cooling Setpoint Temperature Schedule Name

  Schedule:Year,
    office heating year,     !- Name
    temp_setpoint,           !- Schedule Type Limits Name
    office heating week 0,   !- Schedule:Week Name 1
    1,                       !- Start Month 1
    1,                       !- Start Day 1
    12,                      !- End Month 1
    31;                      !- End Day 1

  ScheduleTypeLimits,
    temp_setpoint,           !- Name
    0,                       !- Lower Limit Value
    50,                      !- Upper Limit Value
    continuous,              !- Numeric Type
    temperature;             !- Unit Type

  Schedule:Week:Daily,
    office heating week 0,   !- Name
    office heating week 0 Sunday,  !- Sunday Schedule:Day Name
    office heating week 0 Wednesday,  !- Monday Schedule:Day Name
    office heating week 0 Wednesday,  !- Tuesday Schedule:Day Name
    office heating week 0 Wednesday,  !- Wednesday Schedule:Day Name
    office heating week 0 Thursday,  !- Thursday Schedule:Day Name
    office heating week 0 Friday,  !- Friday Schedule:Day Name
    office heating week 0 Saturday,  !- Saturday Schedule:Day Name
    office heating week 0 Holiday,  !- Holiday Schedule:Day Name
    office heating week 0 Summer design,  !- SummerDesignDay Schedule:Day Name
    office heating week 0 Winter design,  !- WinterDesignDay Schedule:Day Name
    office heating week 0 Holiday,  !- CustomDay1 Schedule:Day Name
    office heating week 0 Holiday;  !- CustomDay2 Schedule:Day Name

  Schedule:Day:Interval,
    office heating week 0 Sunday,  !- Name
    temp_setpoint,           !- Schedule Type Limits Name
    No,                      !- Interpolate to Timestep
    01:00,                   !- Time 1
    15.55555556,             !- Value Until Time 1
    02:00,                   !- Time 2
    15.55555556,             !- Value Until Time 2
    03:00,                   !- Time 3
    15.55555556,             !- Value Until Time 3
    04:00,                   !- Time 4
    15.55555556,             !- Value Until Time 4
    05:00,                   !- Time 5
    15.55555556,             !- Value Until Time 5
    06:00,                   !- Time 6
    15.55555556,             !- Value Until Time 6
    07:00,                   !- Time 7
    15.55555556,             !- Value Until Time 7
    08:00,                   !- Time 8
    15.55555556,             !- Value Until Time 8
    09:00,                   !- Time 9
    15.55555556,             !- Value Until Time 9
    10:00,                   !- Time 10
    15.55555556,             !- Value Until Time 10
    11:00,                   !- Time 11
    15.55555556,             !- Value Until Time 11
    12:00,                   !- Time 12
    15.55555556,             !- Value Until Time 12
    13:00,                   !- Time 13
    15.55555556,             !- Value Until Time 13
    14:00,                   !- Time 14
    15.55555556,             !- Value Until Time 14
    15:00,                   !- Time 15
    15.55555556,             !- Value Until Time 15
    16:00,                   !- Time 16
    15.55555556,             !- Value Until Time 16
    17:00,                   !- Time 17
    15.55555556,             !- Value Until Time 17
    18:00,                   !- Time 18
    15.55555556,             !- Value Until Time 18
    19:00,                   !- Time 19
    15.55555556,             !- Value Until Time 19
    20:00,                   !- Time 20
    15.55555556,             !- Value Until Time 20
    21:00,                   !- Time 21
    15.55555556,             !- Value Until Time 21
    22:00,                   !- Time 22
    15.55555556,             !- Value Until Time 22
    23:00,                   !- Time 23
    15.55555556,             !- Value Until Time 23
    24:00,                   !- Time 24
    15.55555556;             !- Value Until Time 24

  Schedule:Day:Interval,
    office heating week 0 Wednesday,  !- Name
    temp_setpoint,           !- Schedule Type Limits Name
    No,                      !- Interpolate to Timestep
    01:00,                   !- Time 1
    15.55555556,             !- Value Until Time 1
    02:00,                   !- Time 2
    15.55555556,             !- Value Until Time 2
    03:00,                   !- Time 3
    15.55555556,             !- Value Until Time 3
    04:00,                   !- Time 4
    15.55555556,             !- Value Until Time 4
    05:00,                   !- Time 5
    15.55555556,             !- Value Until Time 5
    06:00,                   !- Time 6
    21.11111111,             !- Value Until Time 6
    07:00,                   !- Time 7
    21.11111111,             !- Value Until Time 7
    08:00,                   !- Time 8
    21.11111111,             !- Value Until Time 8
    09:00,                   !- Time 9
    21.11111111,             !- Value Until Time 9
    10:00,                   !- Time 10
    21.11111111,             !- Value Until Time 10
    11:00,                   !- Time 11
    21.11111111,             !- Value Until Time 11
    12:00,                   !- Time 12
    21.11111111,             !- Value Until Time 12
    13:00,                   !- Time 13
    21.11111111,             !- Value Until Time 13
    14:00,                   !- Time 14
    21.11111111,             !- Value Until Time 14
    15:00,                   !- Time 15
    21.11111111,             !- Value Until Time 15
    16:00,                   !- Time 16
    21.11111111,             !- Value Until Time 16
    17:00,                   !- Time 17
    21.11111111,             !- Value Until Time 17
    18:00,                   !- Time 18
    21.11111111,             !- Value Until Time 18
    19:00,                   !- Time 19
    21.11111111,             !- Value Until Time 19
    20:00,                   !- Time 20
    21.11111111,             !- Value Until Time 20
    21:00,                   !- Time 21
    21.11111111,             !- Value Until Time 21
    22:00,                   !- Time 22
    21.11111111,             !- Value Until Time 22
    23:00,                   !- Time 23
    21.11111111,             !- Value Until Time 23
    24:00,                   !- Time 24
    21.11111111;             !- Value Until Time 24

  Schedule:Day:Interval,
    office heating week 0 Thursday,  !- Name
    temp_setpoint,           !- Schedule Type Limits Name
    No,                      !- Interpolate to Timestep
    01:00,                   !- Time 1
    15.55555556,             !- Value Until Time 1
    02:00,                   !- Time 2
    15.55555556,             !- Value Until Time 2
    03:00,                   !- Time 3
    15.55555556,             !- Value Until Time 3
    04:00,                   !- Time 4
    15.55555556,             !- Value Until Time 4
    05:00,                   !- Time 5
    15.55555556,             !- Value Until Time 5
    06:00,                   !- Time 6
    21.11111111,             !- Value Until Time 6
    07:00,                   !- Time 7
    21.11111111,             !- Value Until Time 7
    08:00,                   !- Time 8
    21.11111111,             !- Value Until Time 8
    09:00,                   !- Time 9
    21.11111111,             !- Value Until Time 9
    10:00,                   !- Time 10
    21.11111111,             !- Value Until Time 10